data_alpha_MUF_10_DFT
_cell_length_a                  17.2273
_cell_length_b                  17.2273
_cell_length_c                  17.2273
_cell_angle_alpha               92.9970
_cell_angle_beta                92.9970
_cell_angle_gamma               92.9970

_symmetry_space_group_name_H-M     'R 3'
_symmetry_Int_Tables_number         146
_symmetry_cell_setting             rhombohedral
loop_
_symmetry_equiv_pos_as_xyz
'+x,+y,+z'
'+z,+x,+y'
'+y,+z,+x'

loop_
_atom_site_label
_atom_site_type_symbol
_atom_site_occupancy
_atom_site_fract_x
_atom_site_fract_y
_atom_site_fract_z
    C1    C  1.0000      0.9628    0.8272    0.2853
    C2    C  1.0000      0.7760    0.3249    0.0098
    C3    C  1.0000      0.7598    0.4022    0.9952
    C4    C  1.0000      0.7936    0.4388    0.9341
    C5    C  1.0000      0.8449    0.3992    0.8876
    C6    C  1.0000      0.8619    0.3226    0.9022
    C7    C  1.0000      0.6976    0.0674    0.0232
    C8    C  1.0000      0.6348    0.1804    0.9763
    C9    C  1.0000      0.5827    0.1315    0.9288
   C10    C  1.0000      0.5881    0.0507    0.9283
   C11    C  1.0000      0.6460    0.0189    0.9754
   C12    C  1.0000      0.2574    0.2425    0.7992
   C13    C  1.0000      0.2575    0.2441    0.7132
   C14    C  1.0000      0.0777    0.7446    0.1993
   C15    C  1.0000      0.7389    0.2864    0.0740
   C16    C  1.0000      0.2513    0.2515    0.0492
   C17    C  1.0000      0.2630    0.2580    0.4645
   C18    C  1.0000      0.1834    0.8365    0.2150
   C19    C  1.0000      0.3080    0.6759    0.2279
   C20    C  1.0000      0.6672    0.2910    0.1852
   C21    C  1.0000      0.8453    0.2959    0.3040
   C22    C  1.0000      0.6923    0.1486    0.0241
   C23    C  1.0000      0.9179    0.2121    0.1880
   C24    C  1.0000      0.3130    0.5955    0.2283
   C25    C  1.0000      0.5868    0.2950    0.1923
   C26    C  1.0000      0.2950    0.3068    0.9262
   C27    C  1.0000      0.9627    0.2530    0.2484
   C28    C  1.0000      0.2545    0.5507    0.2620
    H1    H  1.0000      0.8716    0.4280    0.8394
    H2    H  1.0000      0.9021    0.2915    0.8661
    H3    H  1.0000      0.7427    0.0441    0.0614
    H4    H  1.0000      0.6301    0.2437    0.9771
    H5    H  1.0000      0.6502    0.9554    0.9750
    H6    H  1.0000      0.8917    0.5464    0.0126
    H7    H  1.0000      0.8922    0.5374    0.1564
    H8    H  1.0000      0.3537    0.7119    0.2026
    H9    H  1.0000      0.8160    0.3279    0.3496
   H10    H  1.0000      0.9468    0.1776    0.1438
   H11    H  1.0000      0.5662    0.2034    0.3615
   H12    H  1.0000      0.5515    0.3229    0.1481
   H13    H  1.0000      0.9625    0.3258    0.3540
   H14    H  1.0000      0.9743    0.8402    0.2251
   H15    H  1.0000      0.7795    0.4985    0.9219
   H16    H  1.0000      0.7195    0.4317    0.0327
    N1    N  1.0000      0.1257    0.7930    0.1689
    N2    N  1.0000      0.7008    0.3267    0.1228
    O1    O  1.0000      0.2100    0.1985    0.0793
    O2    O  1.0000      0.3107    0.4334    0.2243
    O3    O  1.0000      0.3021    0.2078    0.4291
    O4    O  1.0000      0.2916    0.3074    0.0859
    O5    O  1.0000      0.2565    0.2565    0.2565
   Zn1    Zn 1.0000      0.1878    0.1878    0.1878
   Zn2    Zn 1.0000      0.3199    0.3240    0.1961
