data_beta_MUF_10_DFT
_cell_length_a                  17.1652
_cell_length_b                  17.1652
_cell_length_c                  17.1652
_cell_angle_alpha               92.3160
_cell_angle_beta                92.3160
_cell_angle_gamma               92.3160

_symmetry_space_group_name_H-M     'R 3'
_symmetry_Int_Tables_number         146
_symmetry_cell_setting             rhombohedral
loop_
_symmetry_equiv_pos_as_xyz
'+x,+y,+z'
'+z,+x,+y'
'+y,+z,+x'

loop_
_atom_site_label
_atom_site_type_symbol
_atom_site_occupancy
_atom_site_fract_x
_atom_site_fract_y
_atom_site_fract_z
    C1    C  1.0000      0.5537    0.2417    0.5118
    C2    C  1.0000      0.8388    0.3933    0.9851
    C3    C  1.0000      0.6329    0.2673    0.5148
    C4    C  1.0000      0.6967    0.1709    0.9443
    C5    C  1.0000      0.6215    0.2874    0.9594
    C6    C  1.0000      0.5698    0.2592    0.8989
    C7    C  1.0000      0.5818    0.1875    0.8605
    C8    C  1.0000      0.6455    0.1437    0.8832
    C9    C  1.0000      0.2029    0.7244    0.7670
   C10    C  1.0000      0.7630    0.2892    0.7252
   C11    C  1.0000      0.2748    0.2167    0.7896
   C12    C  1.0000      0.2722    0.2189    0.7030
   C13    C  1.0000      0.7730    0.4138    0.0265
   C14    C  1.0000      0.0486    0.7382    0.2714
   C15    C  1.0000      0.2444    0.5544    0.7752
   C16    C  1.0000      0.7324    0.3564    0.0738
   C17    C  1.0000      0.5669    0.6892    0.2300
   C18    C  1.0000      0.9536    0.7420    0.7611
   C19    C  1.0000      0.7520    0.5389    0.7350
   C20    C  1.0000      0.2509    0.2308    0.0388
   C21    C  1.0000      0.2607    0.2372    0.4534
   C22    C  1.0000      0.1492    0.8289    0.2496
   C23    C  1.0000      0.2689    0.6668    0.2200
   C24    C  1.0000      0.7458    0.4900    0.0225
   C25    C  1.0000      0.6558    0.3228    0.1759
   C26    C  1.0000      0.8155    0.1680    0.7798
   C27    C  1.0000      0.7382    0.3289    0.7925
   C28    C  1.0000      0.8339    0.2947    0.2857
   C29    C  1.0000      0.6610    0.7861    0.3330
   C30    C  1.0000      0.6853    0.2433    0.9829
   C31    C  1.0000      0.9100    0.2404    0.1547
   C32    C  1.0000      0.2742    0.5860    0.2151
   C33    C  1.0000      0.5747    0.3198    0.1838
   C34    C  1.0000      0.0872    0.7846    0.8165
   C35    C  1.0000      0.7833    0.5443    0.9770
   C36    C  1.0000      0.0733    0.6809    0.7157
   C37    C  1.0000      0.9149    0.2907    0.2891
   C38    C  1.0000      0.7958    0.7333    0.4097
   C39    C  1.0000      0.6660    0.7846    0.4147
   C40    C  1.0000      0.9531    0.2617    0.2238
   C41    C  1.0000      0.2314    0.5397    0.2652
   C42    C  1.0000      0.0397    0.7354    0.7656
   C43    C  1.0000      0.4495    0.7671    0.1380
   C44    C  1.0000      0.4932    0.8111    0.1968
   C45    C  1.0000      0.4804    0.8912    0.2080
   C46    C  1.0000      0.8497    0.5238    0.9370
   C47    C  1.0000      0.3810    0.8824    0.1032
   C48    C  1.0000      0.3938    0.8029    0.0913
   C49    C  1.0000      0.6732    0.7174    0.1543
   C50    C  1.0000      0.7563    0.4527    0.7322
   C51    C  1.0000      0.4635    0.4998    0.2773
   C52    C  1.0000      0.4245    0.9265    0.1617
   C53    C  1.0000      0.9416    0.8777    0.4486
   C54    C  1.0000      0.6571    0.3296    0.4693
   C55    C  1.0000      0.6027    0.3663    0.4222
   C56    C  1.0000      0.5243    0.3401    0.4191
    H1    H  1.0000      0.8531    0.2060    0.8194
    H2    H  1.0000      0.8793    0.5666    0.9013
    H3    H  1.0000      0.7209    0.2946    0.8420
    H4    H  1.0000      0.8032    0.3129    0.3378
    H5    H  1.0000      0.9396    0.2161    0.1044
    H6    H  1.0000      0.3126    0.5576    0.1742
    H7    H  1.0000      0.5382    0.3596    0.1514
    H8    H  1.0000      0.0596    0.8271    0.8550
    H9    H  1.0000      0.0358    0.6435    0.6754
   H10    H  1.0000      0.9494    0.3070    0.3427
   H11    H  1.0000      0.8478    0.7128    0.4406
   H12    H  1.0000      0.6176    0.8043    0.4491
   H13    H  1.0000      0.9298    0.4328    0.9104
   H14    H  1.0000      0.4597    0.7048    0.1286
   H15    H  1.0000      0.2535    0.5159    0.9243
   H16    H  1.0000      0.9886    0.8599    0.3339
   H17    H  1.0000      0.1718    0.4140    0.9887
   H18    H  1.0000      0.4595    0.4386    0.2557
   H19    H  1.0000      0.3814    0.4822    0.3689
   H20    H  1.0000      0.0553    0.6943    0.5048
   H21    H  1.0000      0.9711    0.7597    0.6023
   H22    H  1.0000      0.3604    0.7684    0.0452
   H23    H  1.0000      0.2933    0.8818    0.5198
   H24    H  1.0000      0.7186    0.3501    0.4725
   H25    H  1.0000      0.3368    0.9103    0.0673
   H26    H  1.0000      0.5412    0.1654    0.8128
   H27    H  1.0000      0.6211    0.4153    0.3872
   H28    H  1.0000      0.5362    0.1937    0.5486
   H29    H  1.0000      0.7464    0.1374    0.9635
   H30    H  1.0000      0.6121    0.3436    0.9897
   H31    H  1.0000      0.6549    0.0879    0.8525
   H32    H  1.0000      0.3031    0.7039    0.1823
    N1    N  1.0000      0.0803    0.7871    0.2253
    N2    N  1.0000      0.2958    0.5960    0.8175
    N3    N  1.0000      0.3795    0.1299    0.6895
    N4    N  1.0000      0.6201    0.6643    0.1852
    O1    O  1.0000      0.7477    0.7477    0.7477
    O2    O  1.0000      0.1749    0.0704    0.2143
    O3    O  1.0000      0.2761    0.4247    0.2055
    O4    O  1.0000      0.4146    0.3128    0.2032
    O5    O  1.0000      0.8113    0.9238    0.7873
    O6    O  1.0000      0.5699    0.7928    0.7181
    O7    O  1.0000      0.5756    0.6795    0.7822
    O8    O  1.0000      0.2785    0.2938    0.0736
    O9    O  1.0000      0.7021    0.7058    0.9168
   O10    O  1.0000      0.2447    0.2447    0.2447
   Zn1    Zn 1.0000      0.1764    0.1764    0.1764
   Zn2    Zn 1.0000      0.3023    0.3173    0.1835
   Zn3    Zn 1.0000      0.8154    0.8154    0.8154
   Zn4    Zn 1.0000      0.6863    0.6761    0.8069
