data_gamma_MUF_10_DFT
_cell_length_a                  17.1352
_cell_length_b                  32.2612
_cell_length_c                  32.7677
_cell_angle_alpha               90.0000
_cell_angle_beta                90.0000
_cell_angle_gamma               90.0000

_symmetry_space_group_name_H-M     'P 21 21 21'
_symmetry_Int_Tables_number         19
_symmetry_cell_setting             orthorhombic
loop_
_symmetry_equiv_pos_as_xyz
'+x,+y,+z'
'1/2-x,-y,1/2+z'
'-x,1/2+y,1/2-z'
'1/2+x,1/2-y,-z'

loop_
_atom_site_label
_atom_site_type_symbol
_atom_site_occupancy
_atom_site_fract_x
_atom_site_fract_y
_atom_site_fract_z
    C1    C  1.0000     -0.3392    0.0058    0.2601
    C2    C  1.0000     -0.4259    0.0049    0.2626
    C3    C  1.0000     -0.4648   -0.0328    0.2678
    C4    C  1.0000      0.4534   -0.0343    0.2678
    C5    C  1.0000      0.4100    0.0029    0.2640
    C6    C  1.0000      0.4504    0.0407    0.2608
    C7    C  1.0000     -0.4684    0.0420    0.2596
    C8    C  1.0000      0.3235    0.0032    0.2644
    C9    C  1.0000      0.2800   -0.0166    0.2330
   C10    C  1.0000      0.1988   -0.0117    0.2317
   C11    C  1.0000      0.1595    0.0100    0.2624
   C12    C  1.0000      0.2017    0.0290    0.2940
   C13    C  1.0000      0.2830    0.0264    0.2940
   C14    C  1.0000      0.0729    0.0131    0.2605
   C15    C  1.0000      0.3707   -0.0886    0.2484
   C16    C  1.0000      0.3292   -0.1277    0.2567
   C17    C  1.0000      0.3484   -0.1516    0.2913
   C18    C  1.0000      0.3104   -0.1891    0.2984
   C19    C  1.0000      0.2527   -0.2031    0.2713
   C20    C  1.0000      0.2323   -0.1792    0.2373
   C21    C  1.0000      0.2706   -0.1417    0.2300
   C22    C  1.0000      0.3597   -0.0694    0.2067
   C23    C  1.0000      0.3992   -0.0892    0.1717
   C24    C  1.0000      0.4494   -0.1233    0.1774
   C25    C  1.0000      0.4859   -0.1417    0.1438
   C26    C  1.0000      0.4725   -0.1265    0.1045
   C27    C  1.0000      0.4226   -0.0925    0.0987
   C28    C  1.0000      0.3863   -0.0739    0.1321
   C29    C  1.0000     -0.1189    0.1156    0.2779
   C30    C  1.0000     -0.0933    0.1597    0.2809
   C31    C  1.0000     -0.0997    0.1860    0.2469
   C32    C  1.0000     -0.0687    0.2259    0.2490
   C33    C  1.0000     -0.0352    0.2413    0.2852
   C34    C  1.0000     -0.0321    0.2150    0.3200
   C35    C  1.0000     -0.0585    0.1740    0.3169
   C36    C  1.0000      0.0019    0.2828    0.2849
   C37    C  1.0000      0.0627    0.2910    0.2572
   C38    C  1.0000      0.0966    0.3301    0.2544
   C39    C  1.0000      0.0682    0.3625    0.2789
   C40    C  1.0000      0.0065    0.3553    0.3060
   C41    C  1.0000     -0.0259    0.3156    0.3099
   C42    C  1.0000     -0.0191    0.2597    0.3760
   C43    C  1.0000      0.0242    0.2739    0.4123
   C44    C  1.0000      0.0031    0.3108    0.4324
   C45    C  1.0000      0.0452    0.3241    0.4665
   C46    C  1.0000      0.1082    0.3007    0.4808
   C47    C  1.0000      0.1295    0.2639    0.4609
   C48    C  1.0000      0.0879    0.2506    0.4268
   C49    C  1.0000     -0.0917    0.2836    0.3641
   C50    C  1.0000     -0.1633    0.2764    0.3880
   C51    C  1.0000     -0.2302    0.3008    0.3809
   C52    C  1.0000     -0.2981    0.2942    0.4033
   C53    C  1.0000     -0.3002    0.2630    0.4332
   C54    C  1.0000     -0.2341    0.2386    0.4404
   C55    C  1.0000     -0.1658    0.2452    0.4180
   C56    C  1.0000     -0.0998   -0.0947    0.2256
   C57    C  1.0000     -0.1583   -0.0198    0.3593
   C58    C  1.0000     -0.1855   -0.0255    0.4021
   C59    C  1.0000     -0.1597    0.0015    0.4329
   C60    C  1.0000     -0.1888   -0.0030    0.4723
   C61    C  1.0000     -0.2447   -0.0335    0.4818
   C62    C  1.0000     -0.2692   -0.0612    0.4507
   C63    C  1.0000     -0.2385   -0.0572    0.4112
   C64    C  1.0000     -0.2726   -0.0371   -0.4755
   C65    C  1.0000     -0.2177   -0.0435   -0.4442
   C66    C  1.0000     -0.3521   -0.0306   -0.4647
   C67    C  1.0000     -0.2396   -0.0441   -0.4033
   C68    C  1.0000     -0.3730   -0.0287   -0.4233
   C69    C  1.0000     -0.3177   -0.0361   -0.3928
   C70    C  1.0000     -0.1604    0.0337    0.1511
   C71    C  1.0000     -0.4241   -0.0473    0.4767
   C72    C  1.0000      0.4734   -0.0001    0.4491
   C73    C  1.0000     -0.4815   -0.0364    0.4449
   C74    C  1.0000     -0.4920   -0.0618    0.4104
   C75    C  1.0000      0.4533   -0.0512    0.3806
   C76    C  1.0000      0.4080   -0.0154    0.3852
   C77    C  1.0000      0.4183    0.0101    0.4195
   C78    C  1.0000     -0.3868   -0.0897    0.4740
   C79    C  1.0000     -0.4333   -0.1257    0.4871
   C80    C  1.0000     -0.4021   -0.1659    0.4833
   C81    C  1.0000     -0.4452   -0.2001    0.4960
   C82    C  1.0000      0.4803   -0.1947   -0.4870
   C83    C  1.0000      0.4491   -0.1549   -0.4829
   C84    C  1.0000      0.4920   -0.1204   -0.4958
    H1    H  1.0000     -0.4307   -0.0614    0.2712
    H2    H  1.0000      0.4163    0.0694    0.2582
    H3    H  1.0000     -0.4365    0.0713    0.2562
    H4    H  1.0000      0.1654   -0.0252    0.2065
    H5    H  1.0000      0.1700    0.0461    0.3177
    H6    H  1.0000      0.3171    0.0424    0.3176
    H7    H  1.0000      0.3939   -0.1401    0.3119
    H8    H  1.0000      0.3261   -0.2078    0.3252
    H9    H  1.0000      0.2234   -0.2329    0.2766
   H10    H  1.0000      0.1866   -0.1895    0.2160
   H11    H  1.0000      0.2544   -0.1229    0.2034
   H12    H  1.0000      0.4598   -0.1353    0.2082
   H13    H  1.0000     -0.4748   -0.1681    0.1485
   H14    H  1.0000     -0.4987   -0.1409    0.0782
   H15    H  1.0000      0.4122   -0.0804    0.0679
   H16    H  1.0000      0.3472   -0.0472    0.1286
   H17    H  1.0000     -0.1267    0.1741    0.2190
   H18    H  1.0000     -0.0703    0.2463    0.2222
   H19    H  1.0000     -0.0516    0.1528    0.3428
   H20    H  1.0000      0.0837    0.2655    0.2379
   H21    H  1.0000      0.1441    0.3366    0.2329
   H22    H  1.0000     -0.0167    0.3811    0.3240
   H23    H  1.0000     -0.0462    0.3292    0.4211
   H24    H  1.0000      0.0288    0.3530    0.4819
   H25    H  1.0000      0.1410    0.3113   -0.4924
   H26    H  1.0000      0.1790    0.2456    0.4721
   H27    H  1.0000      0.1034    0.2221    0.4103
   H28    H  1.0000     -0.2275    0.3249    0.3573
   H29    H  1.0000     -0.3498    0.3134    0.3975
   H30    H  1.0000     -0.3536    0.2577    0.4509
   H31    H  1.0000     -0.2355    0.2141    0.4637
   H32    H  1.0000     -0.1140    0.2260    0.4236
   H33    H  1.0000     -0.1174    0.0257    0.4251
   H34    H  1.0000     -0.1697    0.0179    0.4968
   H35    H  1.0000     -0.2565   -0.0787    0.3871
   H36    H  1.0000     -0.1565   -0.0484   -0.4529
   H37    H  1.0000     -0.1972   -0.0497   -0.3789
   H38    H  1.0000     -0.4334   -0.0214   -0.4148
   H39    H  1.0000      0.4830    0.0193    0.4761
   H40    H  1.0000     -0.4564   -0.0899    0.4069
   H41    H  1.0000      0.4457   -0.0705    0.3532
   H42    H  1.0000      0.3644   -0.0076    0.3619
   H43    H  1.0000      0.3829    0.0383    0.4230
   H44    H  1.0000     -0.3436   -0.1691    0.4701
   H45    H  1.0000     -0.4208   -0.2314    0.4929
   H46    H  1.0000      0.4466   -0.2217   -0.4769
   H47    H  1.0000      0.3910   -0.1505   -0.4695
   H48    H  1.0000      0.4675   -0.0892   -0.4926
    N1    N  1.0000      0.4164   -0.0724    0.2755
    N2    N  1.0000      0.3161   -0.0373    0.2006
    N3    N  1.0000      0.0047    0.2275    0.3561
    N4    N  1.0000     -0.0918    0.3103    0.3347
    N5    N  1.0000     -0.3170   -0.0951    0.4599
    N6    N  1.0000     -0.4091   -0.0216   -0.4940
    O1    O  1.0000     -0.1326    0.0091    0.2560
    O2    O  1.0000     -0.3073    0.0413    0.2555
    O3    O  1.0000      0.0416    0.0027    0.2267
    O4    O  1.0000     -0.3037   -0.0290    0.2623
    O5    O  1.0000      0.0378    0.0258    0.2925
    O6    O  1.0000     -0.1628    0.1063    0.2478
    O7    O  1.0000     -0.0941    0.0909    0.3054
    O8    O  1.0000     -0.1545   -0.0897    0.2516
    O9    O  1.0000     -0.0688   -0.0667    0.2035
   O10    O  1.0000     -0.1077    0.0086    0.3530
   O11    O  1.0000     -0.1887   -0.0435    0.3325
   O12    O  1.0000     -0.0935    0.0185    0.1598
   O13    O  1.0000     -0.2111    0.0465    0.1766
   Zn1    Zn 1.0000     -0.2025    0.0514    0.2355
   Zn2    Zn 1.0000     -0.1937   -0.0380    0.2737
   Zn3    Zn 1.0000     -0.0739    0.0316    0.3013
   Zn4    Zn 1.0000     -0.0659   -0.0070    0.2113

