data_IRMOF_9_DFT
_cell_length_a                  17.2572
_cell_length_b                  24.2516
_cell_length_c                  24.5119
_cell_angle_alpha               90.0000
_cell_angle_beta                90.0000
_cell_angle_gamma               90.0000

_symmetry_space_group_name_H-M     'P n n m'
_symmetry_Int_Tables_number         58
_symmetry_cell_setting             orthorhombic
loop_
_symmetry_equiv_pos_as_xyz
'+x,+y,+z'
'-x,-y,+z'
'1/2-x,1/2+y,1/2-z'
'1/2+x,1/2-y,1/2-z'
'-x,-y,-z'
'+x,+y,-z'
'1/2+x,1/2-y,1/2+z'
'1/2-x,1/2+y,1/2+z'

loop_
_atom_site_label
_atom_site_type_symbol
_atom_site_occupancy
_atom_site_fract_x
_atom_site_fract_y
_atom_site_fract_z
    C1    C  1.0000     -0.2504   -0.2954    0.1427
    C2    C  1.0000     -0.3118   -0.3332    0.1466
    C3    C  1.0000     -0.3112   -0.3735    0.1871
    C4    C  1.0000     -0.2490   -0.3776    0.2242
    C5    C  1.0000     -0.1872   -0.3399    0.2193
    C6    C  1.0000     -0.1881   -0.2990    0.1794
    C7    C  1.0000     -0.2485   -0.4201    0.2673
    C8    C  1.0000     -0.2113   -0.4101    0.3177
    C9    C  1.0000     -0.2105   -0.4500    0.3586
   C10    C  1.0000     -0.2480    0.4993    0.3505
   C11    C  1.0000     -0.2855    0.4888    0.3006
   C12    C  1.0000     -0.2852   -0.4715    0.2596
   C13    C  1.0000     -0.2514   -0.2514    0.1004
   C14    C  1.0000     -0.2485    0.4570    0.3945
   C15    C  1.0000     -0.0438   -0.1390    0.0000
   C16    C  1.0000      0.0424   -0.1367    0.0000
   C17    C  1.0000      0.2052   -0.1350    0.0000
   C18    C  1.0000      0.2915   -0.1356    0.0000
   C19    C  1.0000      0.3317   -0.1861    0.0000
   C20    C  1.0000      0.4125   -0.1870    0.0000
   C21    C  1.0000      0.4546   -0.1374    0.0000
   C22    C  1.0000      0.4149   -0.0869    0.0000
   C23    C  1.0000      0.3339   -0.0860    0.0000
   C24    C  1.0000     -0.4592   -0.1391    0.0000
   C25    C  1.0000     -0.4168   -0.3641   -0.4505
   C26    C  1.0000     -0.3360   -0.3649   -0.4505
    H1    H  1.0000      0.4498    0.3638   -0.4123
    H2    H  1.0000      0.3041    0.3657   -0.4118
    H3    H  1.0000     -0.3140    0.4489    0.2949
    H4    H  1.0000     -0.3126   -0.4806    0.2202
    H5    H  1.0000      0.2987   -0.2248    0.0000
    H6    H  1.0000      0.4447   -0.2259    0.0000
    H7    H  1.0000      0.4482   -0.0484    0.0000
    H8    H  1.0000      0.3030   -0.0465    0.0000
    H9    H  1.0000     -0.3600   -0.3296    0.1177
   H10    H  1.0000     -0.3607   -0.4017    0.1911
   H11    H  1.0000     -0.1371   -0.3435    0.2466
   H12    H  1.0000     -0.1404   -0.2694    0.1754
   H13    H  1.0000     -0.1838   -0.3700    0.3250
   H14    H  1.0000     -0.1815   -0.4422    0.3977
    O1    O  1.0000     -0.1986   -0.2147    0.1039
    O2    O  1.0000     -0.3048   -0.2539    0.0645
    O3    O  1.0000     -0.2087    0.4677    0.4372
    O4    O  1.0000     -0.2885    0.4136    0.3861
    O5    O  1.0000     -0.0771   -0.1401   -0.0465
    O6    O  1.0000     -0.4237   -0.0929    0.0000
    O7    O  1.0000     -0.4279   -0.1868    0.0000
    O8    O  1.0000     -0.2515   -0.1450    0.0000
   Zn1    Zn 1.0000     -0.3131   -0.0786    0.0000
   Zn2    Zn 1.0000     -0.3196   -0.2085    0.0000
   Zn3    Zn 1.0000     -0.1861   -0.1461   -0.0642
