data_DFT_A_LDA
_symmetry_space_group_name_H-M 'P 21 21 21'
_space_group_IT_number         19
_cell_length_a                 8.85799895
_cell_length_b                 9.07401715
_cell_length_c                 8.99779714
_cell_angle_alpha              90.000000
_cell_angle_beta               90.000000
_cell_angle_gamma              90.000000
loop_
_atom_site_type_symbol
_atom_site_fract_x
_atom_site_fract_y
_atom_site_fract_z
Zr -4.530306169684E-01 4.805340560748E-01 2.859213814610E-02
W -4.301668410494E-02 3.925476292151E-01 1.214664468072E-01
W -3.140476184322E-01 -1.273782451431E-01 1.458937515672E-01
O -3.179473395330E-01 1.228714243811E-02 -4.614139113642E-01
O -1.253717417585E-01 3.077434127116E-01 -4.150273947322E-01
O -5.090742740736E-02 2.977290991300E-02 -2.406363782366E-01
O 6.706001993593E-02 -3.074690083027E-02 1.884132581475E-01
O 8.468952584899E-03 2.407218962053E-01 -6.397630219859E-03
O -2.315189995284E-01 4.248357925246E-01 5.326309424675E-02
O -4.523645291233E-01 -5.391096143250E-02 -4.036313727786E-02
O -3.283897768724E-01 1.711280772303E-01 -2.190309851925E-01
O 3.518572471547E-01 2.914959511813E-01 -2.392425525447E-01
H 3.313673125270E-01 3.717832656733E-01 -1.650220810092E-01
H 3.999864705988E-01 3.395293522714E-01 -3.301517537172E-01


data_DFT_A_PBESOL0
_symmetry_space_group_name_H-M 'P 21 21 21'
_space_group_IT_number         19
_cell_length_a                 8.86506319
_cell_length_b                 9.12170958
_cell_length_c                 9.05965830
_cell_angle_alpha              90.000000
_cell_angle_beta               90.000000
_cell_angle_gamma              90.000000
loop_
_atom_site_type_symbol
_atom_site_fract_x
_atom_site_fract_y
_atom_site_fract_z
Zr -4.583574835329E-01 4.814758180531E-01 2.599628988212E-02
W -4.894145760896E-02 3.932158040105E-01 1.218902211265E-01
W -3.132096843842E-01 -1.323928450658E-01 1.499429795474E-01
O -3.140269226669E-01 2.164413615759E-02 -4.613228736123E-01
O -1.196495127615E-01 3.062571798935E-01 -4.157717306335E-01
O -5.408301030862E-02 3.410126999336E-02 -2.375005634521E-01
O 6.474199925777E-02 -3.213826102301E-02 1.894329502303E-01
O -2.120505047649E-04 2.368988977499E-01 2.602301776099E-03
O -2.372876909638E-01 4.241543808645E-01 5.969392469936E-02
O -4.591134769303E-01 -4.587507925122E-02 -3.684248252232E-02
O -3.272469272702E-01 1.781841744468E-01 -2.197403788357E-01
O 3.419411291284E-01 2.908334224062E-01 -2.460109561723E-01
H 3.211479800620E-01 3.677384579330E-01 -1.734943112764E-01
H 3.952964676751E-01 3.380208673844E-01 -3.293505601997E-01


data_DFT_B_LDA
_symmetry_space_group_name_H-M 'P 21 21 21'
_space_group_IT_number         19
_cell_length_a                 9.05492896
_cell_length_b                 8.99411597
_cell_length_c                 8.84337110
_cell_angle_alpha              90.000000
_cell_angle_beta               90.000000
_cell_angle_gamma              90.000000
loop_
_atom_site_type_symbol
_atom_site_fract_x
_atom_site_fract_y
_atom_site_fract_z
H 2.109477621335E-01 2.756395632395E-01 -2.619548603931E-01
H 1.454126450639E-01 3.302441648742E-01 -1.035961553183E-01
O -3.115210156372E-01 9.769752789173E-02 -3.810423081959E-01
O -2.490540551210E-02 2.531604534839E-01 -4.439756926817E-01
O -6.421202830225E-02 6.628702819722E-03 -1.807093995662E-01
O -3.644462078202E-02 1.822916740544E-01 6.660879485658E-02
O -2.601077889444E-01 -4.938161882345E-01 4.064208497117E-03
O 7.934181642944E-02 -7.230442469343E-02 2.558459203898E-01
O -4.493206376895E-01 3.850599015524E-02 3.590346791121E-02
O -1.728872765861E-01 2.845581195215E-01 -1.669962446440E-01
O 1.908373823195E-01 2.411340842533E-01 -1.583564828588E-01
W -3.658254730966E-01 -1.474849209905E-01 1.911338488160E-01
W -1.085036752615E-01 3.756533231368E-01 4.990396843117E-02
Zr -4.793817309299E-01 -4.683488591902E-01 -3.455124570577E-02


data_DFT_B_PBESOL0
_symmetry_space_group_name_H-M 'P 21 21 21'
_space_group_IT_number         19
_cell_length_a                 9.08305577
_cell_length_b                 9.09178188
_cell_length_c                 8.85790972
_cell_angle_alpha              90.000000
_cell_angle_beta               90.000000
_cell_angle_gamma              90.000000
loop_
_atom_site_type_symbol
_atom_site_fract_x
_atom_site_fract_y
_atom_site_fract_z
H 2.106187182734E-01 2.867239624772E-01 -2.661190751276E-01
H 1.437655122232E-01 3.301560217284E-01 -1.099951570639E-01
O -3.071602698755E-01 9.724483133059E-02 -3.858288062493E-01
O -2.885119528089E-02 2.579803277556E-01 -4.418025371049E-01
O -6.314453701177E-02 1.276200356246E-02 -1.849019118471E-01
O -4.134240485509E-02 1.829763476413E-01 6.665889859933E-02
O -2.664848435454E-01 4.958932845282E-01 1.169863328953E-02
O 8.029879025828E-02 -7.594051660565E-02 2.511764568793E-01
O -4.592025898598E-01 3.821730225423E-02 2.965010449947E-02
O -1.799046095377E-01 2.840803269371E-01 -1.682960283533E-01
O 1.882770658101E-01 2.474303939039E-01 -1.670471284996E-01
W -3.641471544360E-01 -1.530057852339E-01 1.922091434083E-01
W -1.107653097866E-01 3.742208140744E-01 5.655484375937E-02
Zr -4.824468670211E-01 -4.719620341604E-01 -3.184261817303E-02


data_DFT_C_LDA
_symmetry_space_group_name_H-M 'P 21 21 21'
_space_group_IT_number         19
_cell_length_a                 8.98600394
_cell_length_b                 8.85199188
_cell_length_c                 9.13654613
_cell_angle_alpha              90.000000
_cell_angle_beta               90.000000
_cell_angle_gamma              90.000000
loop_
_atom_site_type_symbol
_atom_site_fract_x
_atom_site_fract_y
_atom_site_fract_z
H 1.791354033635E-01 2.836748525449E-01 -3.789650545167E-01
H 3.386706841564E-01 3.239945181896E-01 -3.020510036185E-01
O 2.646284558087E-01 -4.797373225488E-01 -7.184078480261E-02
O 4.932089011645E-01 -3.292672307366E-01 8.322639395258E-02
O 1.042802334974E-01 -3.655595766454E-01 -3.068277500611E-01
O -6.034032439687E-02 2.615007996265E-01 8.984708655179E-02
O 4.070756320021E-02 -5.629182573852E-03 2.135679289264E-01
O 1.836962283870E-01 8.024246840000E-02 -6.954552107665E-02
O -4.804798366027E-01 4.568284734425E-01 4.632959992209E-01
O -2.109856844877E-01 -3.228496204065E-01 1.466294157772E-01
O 2.916836352826E-01 2.638690541024E-01 -3.807168026049E-01
W -3.540838357557E-01 -1.856772238805E-01 1.211817173500E-01
W 1.210480579090E-01 -4.397977448952E-02 3.911212642858E-01
Zr -4.688734099784E-01 -4.476980741099E-02 -4.957017980487E-01


data_DFT_C_PBESOL0
_symmetry_space_group_name_H-M 'P 21 21 21'
_space_group_IT_number         19
_cell_length_a                 9.01998331
_cell_length_b                 8.86741732
_cell_length_c                 9.14143820
_cell_angle_alpha              90.000000
_cell_angle_beta               90.000000
_cell_angle_gamma              90.000000
loop_
_atom_site_type_symbol
_atom_site_fract_x
_atom_site_fract_y
_atom_site_fract_z
H 1.791014026740E-01 2.790586547456E-01 -3.774504342982E-01
H 3.310493038069E-01 3.317432217035E-01 -3.067592132338E-01
O 2.676999802367E-01 -4.780346203944E-01 -6.937292582878E-02
O -4.992793446086E-01 -3.280960722480E-01 8.215459309016E-02
O 1.040739842746E-01 -3.700397387493E-01 -3.046142819332E-01
O -5.647684864200E-02 2.614611076935E-01 8.538674199417E-02
O 4.074966299229E-02 -8.484163016080E-03 2.143510164299E-01
O 1.885671569366E-01 7.879339124798E-02 -6.843971426377E-02
O -4.823166917883E-01 4.561802145170E-01 4.677616526578E-01
O -2.096898049314E-01 -3.194824403060E-01 1.510975146736E-01
O 2.886653020156E-01 2.638525184618E-01 -3.790133571197E-01
W -3.496372181714E-01 -1.851815160502E-01 1.229563013565E-01
W 1.175874731899E-01 -4.792833212307E-02 3.916194698893E-01
Zr -4.725922760873E-01 -4.106336437718E-02 -4.967268515991E-01


data_DFT_D_LDA
_symmetry_space_group_name_H-M 'P 21'
_space_group_IT_number         4
_cell_length_a                 8.99568007
_cell_length_b                 8.85209743
_cell_length_c                 9.04543077
_cell_angle_alpha              90.000000
_cell_angle_beta               89.508431
_cell_angle_gamma              90.000000
loop_
_atom_site_type_symbol
_atom_site_fract_x
_atom_site_fract_y
_atom_site_fract_z
H 1.702976588864E-01 1.102242652995E-01 -9.982922472814E-02
H 2.428886567665E-01 2.647837777247E-01 -3.452496041571E-02
H 1.666839380287E-01 -1.702572072852E-01 3.761393739760E-01
H 3.312090658822E-01 -1.011706124892E-01 4.092087357495E-01
O 2.554929467444E-01 -4.583378190054E-01 2.096228984188E-01
O 2.403309724477E-01 4.368124720351E-01 -2.640867268669E-01
O -4.880858122988E-01 -3.240757196911E-01 3.066352079907E-01
O 3.926853879973E-02 -1.862809880035E-01 2.371681910744E-01
O 8.291730037598E-02 -3.713541961275E-01 -6.082794311035E-02
O -4.019563689434E-01 -1.201953925290E-01 -4.423137974494E-01
O -5.471816290430E-02 2.640916218332E-01 3.260371156567E-01
O -4.347657907708E-01 -2.632244046887E-01 -1.725672394280E-01
O -9.190655672301E-03 4.234270917636E-03 4.926817366212E-01
O 4.940316219127E-01 4.956062195324E-01 1.131413058834E-02
O 1.848742155488E-01 6.397938829831E-02 2.146242891557E-01
O -3.115598275019E-01 4.298391526643E-01 2.820445100587E-01
O -4.631086431573E-01 4.570546161029E-01 -3.001842421856E-01
O 4.058308891908E-02 4.373411185151E-02 -1.931807396782E-01
O -2.158465059166E-01 -3.323357915819E-01 4.187944022563E-01
O 2.840849552103E-01 -1.729065413541E-01 7.686883562903E-02
O 2.640714594881E-01 1.580838071640E-01 -5.619380266430E-02
O 2.395927629423E-01 -1.481772999491E-01 4.567023328489E-01
W -3.529387108205E-01 -1.917353497272E-01 3.783388154872E-01
W -1.477684246129E-01 1.846444383788E-01 -1.189152069495E-01
W 1.206641208722E-01 -4.627742168276E-02 -3.563561578492E-01
W 3.777776149633E-01 4.438811713274E-02 1.416408632866E-01
Zr -4.734914640291E-01 -4.219161518955E-02 -2.327214975442E-01
Zr -3.190038051031E-02 4.104410036927E-02 2.716213844709E-01


data_DFT_D_PBESOL0
_symmetry_space_group_name_H-M 'P 21'
_space_group_IT_number         4
_cell_length_a                 9.08005641
_cell_length_b                 8.85880279
_cell_length_c                 9.09650293
_cell_angle_alpha              90.000000
_cell_angle_beta               89.487470
_cell_angle_gamma              90.000000
loop_
_atom_site_type_symbol
_atom_site_fract_x
_atom_site_fract_y
_atom_site_fract_z
H 1.696931459094E-01 1.139531140462E-01 -9.862923062234E-02
H 2.206112706227E-01 2.666361874206E-01 -2.554220286716E-02
H 1.747046455400E-01 -1.795622380993E-01 3.798719085848E-01
H 3.310051595923E-01 -1.072872871111E-01 4.086847080354E-01
O 2.588641098403E-01 -4.536675449927E-01 2.083397661519E-01
O 2.372822048218E-01 4.391569763566E-01 -2.728903924418E-01
O -4.836706291810E-01 -3.191455395684E-01 3.053153713902E-01
O 3.781110375715E-02 -1.891646383940E-01 2.252957202623E-01
O 8.318378586532E-02 -3.789424036883E-01 -5.848082119643E-02
O -4.050147433568E-01 -1.172627455890E-01 -4.458772306482E-01
O -6.208797939540E-02 2.593955367300E-01 3.270675251678E-01
O -4.301415075605E-01 -2.579524981990E-01 -1.721081444033E-01
O 2.016943190760E-03 -3.302880558847E-03 4.883036545572E-01
O -4.950732824725E-01 -4.952005229051E-01 1.729061731303E-02
O 1.864543524222E-01 6.290172772735E-02 2.126785087841E-01
O -3.117710207096E-01 4.321800152831E-01 2.842199011137E-01
O -4.648016078471E-01 4.624842406974E-01 -2.904355625148E-01
O 3.766426702925E-02 3.625547246729E-02 -2.015644101047E-01
O -2.175241478789E-01 -3.306557651961E-01 4.236146124441E-01
O 2.832464889045E-01 -1.747257760132E-01 6.957564010201E-02
O 2.548452206548E-01 1.676985620155E-01 -5.519812315666E-02
O 2.464042856432E-01 -1.580232056823E-01 4.564772206279E-01
W -3.494187553605E-01 -1.915590715210E-01 3.802606638504E-01
W -1.519389035492E-01 1.855677910042E-01 -1.144487108433E-01
W 1.229015920989E-01 -5.118198508500E-02 -3.561475521881E-01
W 3.769069293946E-01 5.116554624254E-02 1.404953525073E-01
Zr -4.749614607291E-01 -3.754590525908E-02 -2.350857433223E-01
Zr -2.824944462682E-02 3.778483787167E-02 2.710103417704E-01


data_DFT_E_LDA
_symmetry_space_group_name_H-M 'P 21 21 21'
_space_group_IT_number         19
_cell_length_a                 8.77966351
_cell_length_b                 8.75702808
_cell_length_c                 9.30187052
_cell_angle_alpha              90.000000
_cell_angle_beta               90.000000
_cell_angle_gamma              90.000000
loop_
_atom_site_type_symbol
_atom_site_fract_x
_atom_site_fract_y
_atom_site_fract_z
H 3.453624106060E-01 1.887969044717E-01 -3.567166383000E-01
H 1.885972296775E-01 2.925452767709E-01 -3.828961910065E-01
O 2.691370204866E-01 -4.841198153458E-01 -8.740100123156E-02
O -4.975369092870E-01 -3.405824007079E-01 8.763498144380E-02
O 1.005131180714E-01 -3.607933852334E-01 -3.132625105995E-01
O -3.112066087024E-02 2.723706419581E-01 8.711288744237E-02
O 7.547124277557E-02 -3.366300970763E-02 1.959641277491E-01
O 1.949598973189E-01 8.763769077726E-02 -6.521963273413E-02
O -4.777728388156E-01 4.477029657576E-01 4.562660149789E-01
O -1.991952280620E-01 -3.208715444765E-01 1.541437323481E-01
O 3.028379136928E-01 2.877952277911E-01 -3.965325719004E-01
W -3.530003630711E-01 -1.863245183161E-01 1.297804398788E-01
W 1.139663372789E-01 -3.778390468532E-02 3.918604598683E-01
Zr -4.689682087741E-01 -5.256316921558E-02 -4.891108551342E-01


data_DFT_E_PBESOL0
_symmetry_space_group_name_H-M 'P 21 21 21'
_space_group_IT_number         19
_cell_length_a                 8.88721388
_cell_length_b                 8.81992649
_cell_length_c                 9.27675806
_cell_angle_alpha              90.000000
_cell_angle_beta               90.000000
_cell_angle_gamma              90.000000
loop_
_atom_site_type_symbol
_atom_site_fract_x
_atom_site_fract_y
_atom_site_fract_z
H 3.415711595381E-01 1.869777081014E-01 -3.570449696702E-01
H 1.874927384658E-01 2.829857697462E-01 -3.812397484211E-01
O 2.722718102530E-01 -4.793023010859E-01 -8.157618928064E-02
O -4.928694992680E-01 -3.363821083215E-01 8.549807780692E-02
O 1.001611761110E-01 -3.659184275801E-01 -3.083502467662E-01
O -3.904469922009E-02 2.687431821846E-01 8.223478707753E-02
O 7.006483597234E-02 -3.218121075709E-02 2.001835011280E-01
O 1.967795221857E-01 8.233329196398E-02 -6.315164575025E-02
O -4.827711313407E-01 4.481353554906E-01 4.648340721416E-01
O -2.018476534050E-01 -3.196854838171E-01 1.579948518732E-01
O 2.977269475691E-01 2.818161667979E-01 -3.951027662864E-01
W -3.481539580618E-01 -1.874171557961E-01 1.289362654796E-01
W 1.127942733667E-01 -4.313862773430E-02 3.930610541954E-01
Zr -4.704222462246E-01 -4.694306028094E-02 -4.928803870717E-01


data_DFT_anhydrous_LDA
_symmetry_space_group_name_H-M 'P 21 3'
_space_group_IT_number         198
_cell_length_a                 9.18232386
_cell_length_b                 9.18232386
_cell_length_c                 9.18232386
_cell_angle_alpha              90.000000
_cell_angle_beta               90.000000
_cell_angle_gamma              90.000000
loop_
_atom_site_type_symbol
_atom_site_fract_x
_atom_site_fract_y
_atom_site_fract_z
Zr 3.314662182624E-03 3.314662182624E-03 3.314662182624E-03
W 3.401783693332E-01 3.401783693332E-01 3.401783693332E-01
W -4.040930697817E-01 -4.040930697817E-01 -4.040930697817E-01
O 5.654424228899E-02 -2.021364597826E-01 -6.111612451308E-02
O 6.354309869197E-02 -5.238536106649E-02 2.160419716268E-01
O 4.855595925905E-01 4.855595925905E-01 4.855595925905E-01
O 2.311497583966E-01 2.311497583966E-01 2.311497583966E-01


data_DFT_anhydrous_PBESOL0
_symmetry_space_group_name_H-M 'P 21 3'
_space_group_IT_number         198
_cell_length_a                 9.18768961
_cell_length_b                 9.18768961
_cell_length_c                 9.18768961
_cell_angle_alpha              90.000000
_cell_angle_beta               90.000000
_cell_angle_gamma              90.000000
loop_
_atom_site_type_symbol
_atom_site_fract_x
_atom_site_fract_y
_atom_site_fract_z
Zr 1.699301175981E-03 1.699301175981E-03 1.699301175981E-03
W 3.414694870449E-01 3.414694870449E-01 3.414694870449E-01
W -4.005213573239E-01 -4.005213573239E-01 -4.005213573239E-01
O 5.415229372756E-02 -2.047357680613E-01 -6.153230415922E-02
O 6.587111629971E-02 -5.641683896345E-02 2.137176404143E-01
O 4.903484253665E-01 4.903484253665E-01 4.903484253665E-01
O 2.339618093787E-01 2.339618093787E-01 2.339618093787E-01

