data_DFT_phase_II
_publ_section_comment
;
Structure of phase II, fully relaxed by DFT calculation
;
_cell_length_a                   8.4208
_cell_length_b                   8.4933
_cell_length_c                  16.3164
_cell_angle_alpha               89.1520
_cell_angle_beta                78.1850
_cell_angle_gamma               70.2950

_symmetry_space_group_name_H-M     'P 1'
_symmetry_Int_Tables_number         1
_symmetry_cell_setting             triclinic
loop_
_symmetry_equiv_pos_as_xyz
'+x,+y,+z'

loop_
_atom_site_label
_atom_site_type_symbol
_atom_site_occupancy
_atom_site_fract_x
_atom_site_fract_y
_atom_site_fract_z
    C1    C    1.0      0.6462    0.9584    0.7141
    C2    C    1.0      0.9660    0.4202    0.1328
    C3    C    1.0      0.9494    0.4541    0.5074
    C4    C    1.0      0.8378    0.6479    0.2446
    C5    C    1.0      0.0092    0.9775    0.5642
    C6    C    1.0      0.9938    0.1060    0.9741
    C7    C    1.0      0.9687    0.2852    0.7314
    C8    C    1.0      0.0327    0.9340    0.1911
    C9    C    1.0      0.0891    0.8888    0.8578
   C10    C    1.0      0.8842    0.5093    0.8435
   C11    C    1.0      0.1380    0.7580    0.4486
   C12    C    1.0      0.1641    0.9517    0.2402
   C13    C    1.0      0.3382    0.4238    0.2558
   C14    C    1.0      0.3266    0.4301    0.9831
   C15    C    1.0      0.3425    0.5612    0.6740
   C16    C    1.0      0.4500    0.0106    0.7206
   C17    C    1.0      0.4649    0.9610    0.4503
   C18    C    1.0      0.4954    0.5018    0.7191
   C19    C    1.0      0.4749    0.8848    0.9760
   C20    C    1.0      0.5233    0.4260    0.2463
   C21    C    1.0      0.5232    0.3761    0.9757
   C22    C    1.0      0.6317    0.8225    0.0181
   C23    C    1.0      0.6523    0.9566    0.4410
   C24    C    1.0      0.8192    0.4244    0.4610
    H1    H    1.0      0.8739    0.1677    0.9515
    H2    H    1.0      0.9962    0.7374    0.5658
    H3    H    1.0      0.0020    0.5150    0.7199
    H4    H    1.0      0.0098    0.4576    0.8623
    H5    H    1.0      0.9600    0.9947    0.6326
    H6    H    1.0      0.9650    0.9393    0.8376
    H7    H    1.0      0.9645    0.1200    0.0432
    H8    H    1.0      0.9663    0.8732    0.9792
    H9    H    1.0      0.9902    0.2667    0.6628
   H10    H    1.0      0.0206    0.8017    0.4227
   H11    H    1.0      0.1104    0.0336    0.5445
   H12    H    1.0      0.0920    0.2238    0.7512
   H13    H    1.0      0.9014    0.0314    0.5321
   H14    H    1.0      0.8677    0.2353    0.7623
   H15    H    1.0      0.0949    0.1592    0.9477
   H16    H    1.0      0.8338    0.6467    0.8551
   H17    H    1.0      0.1803    0.9487    0.8253
   H18    H    1.0      0.1744    0.8696    0.9710
   H19    H    1.0      0.2030    0.6217    0.4359
   H20    H    1.0      0.1957    0.7426    0.5675
   H21    H    1.0      0.7926    0.5223    0.7318
   H22    H    1.0      0.1432    0.7519    0.8442
   H23    H    1.0      0.7923    0.4533    0.8791
   H24    H    1.0      0.2272    0.8243    0.4222
   H25    H    1.0      0.3092    0.3788    0.5044
   H26    H    1.0      0.4835    0.4277    0.4906
   H27    H    1.0      0.7460    0.5857    0.2730
   H28    H    1.0      0.7771    0.7851    0.2543
   H29    H    1.0      0.7784    0.6536    0.1266
   H30    H    1.0      0.8662    0.3639    0.1557
   H31    H    1.0      0.9554    0.6038    0.2705
   H32    H    1.0      0.9783    0.6608    0.1265
   H33    H    1.0      0.0118    0.3985    0.0642
   H34    H    1.0      0.0763    0.3704    0.1635
   Li1    Li   1.0      0.1540    0.2064    0.3770
   Li2    Li   1.0      0.4833    0.2297    0.3726
   Li3    Li   1.0      0.4839    0.1935    0.8493
   Li4    Li   1.0      0.8362    0.1731    0.3165
    N1    N    1.0      0.8891    0.6031    0.1532
    N2    N    1.0      0.0586    0.9245    0.9494
    N3    N    1.0      0.9090    0.4678    0.7528
    N4    N    1.0      0.0858    0.7957    0.5407
    O1    O    1.0      0.8759    0.3133    0.4031
    O2    O    1.0      0.1038    0.3621    0.4874
    O3    O    1.0      0.0971    0.8128    0.1338
    O4    O    1.0      0.1095    0.0645    0.2978
    O5    O    1.0      0.7675    0.8473    0.9885
    O6    O    1.0      0.8841    0.5747    0.5642
    O7    O    1.0      0.8813    0.0315    0.2088
    O8    O    1.0      0.2084    0.5310    0.6996
    O9    O    1.0      0.2402    0.5515    0.0393
   O10    O    1.0      0.2544    0.5143    0.2046
   O11    O    1.0      0.2854    0.3381    0.3104
   O12    O    1.0      0.2670    0.3589    0.9378
   O13    O    1.0      0.3171    0.8465    0.2169
   O14    O    1.0      0.3492    0.1218    0.7728
   O15    O    1.0      0.3566    0.8193    0.0082
   O16    O    1.0      0.3705    0.0568    0.4076
   O17    O    1.0      0.3733    0.6438    0.6081
   O18    O    1.0      0.4084    0.9268    0.6675
   O19    O    1.0      0.4237    0.8610    0.5032
   O20    O    1.0      0.4342    0.3419    0.4797
   O21    O    1.0      0.5012    0.4065    0.7763
   O22    O    1.0      0.4646    0.9824    0.9197
   O23    O    1.0      0.5630    0.5215    0.1908
   O24    O    1.0      0.5672    0.4573    0.0287
   O25    O    1.0      0.6171    0.3386    0.2921
   O26    O    1.0      0.6024    0.7431    0.0851
   O27    O    1.0      0.6157    0.5662    0.6883
   O28    O    1.0      0.6224    0.2655    0.9225
   O29    O    1.0      0.6620    0.5206    0.4881
   O30    O    1.0      0.7044    0.0308    0.7594
   O31    O    1.0      0.7089    0.0433    0.3887
   O32    O    1.0      0.7344    0.8579    0.4905
   O33    O    1.0      0.7343    0.8368    0.6580
   Zr1    Zr   1.0      0.6008    0.7293    0.5850
   Zr2    Zr   1.0      0.3770    0.6568    0.1124

