data_DFT_phase_II_dehydrated
_publ_section_comment
;
Structure of phase II, with water removed, fully relaxed by DFT calculation
;
_cell_length_a                   8.4730
_cell_length_b                   8.8703
_cell_length_c                  15.9613
_cell_angle_alpha               88.1130
_cell_angle_beta                75.3490
_cell_angle_gamma               68.2850

_symmetry_space_group_name_H-M     'P 1'
_symmetry_Int_Tables_number         1
_symmetry_cell_setting             triclinic
loop_
_symmetry_equiv_pos_as_xyz
'+x,+y,+z'

loop_
_atom_site_label
_atom_site_type_symbol
_atom_site_occupancy
_atom_site_fract_x
_atom_site_fract_y
_atom_site_fract_z
    C1    C    1.0      0.0847   -0.1125   -0.1443
    C2    C    1.0      0.1528   -0.2605    0.4548
    C3    C    1.0      0.1522   -0.0517    0.2437
    C4    C    1.0      0.3363    0.4128    0.2479
    C5    C    1.0      0.3218    0.4444   -0.0202
    C6    C    1.0     -0.3450   -0.0548   -0.2818
    C7    C    1.0      0.3531   -0.4368   -0.3207
    C8    C    1.0      0.4573    0.0143   -0.2775
    C9    C    1.0      0.4619   -0.0359    0.4530
   C10    C    1.0     -0.4859    0.4930   -0.2824
   C11    C    1.0      0.4621   -0.1028   -0.0198
   C12    C    1.0     -0.4874    0.4275    0.2460
   C13    C    1.0     -0.4803    0.3762   -0.0251
   C14    C    1.0     -0.3769   -0.1728    0.0185
   C15    C    1.0     -0.3618   -0.0206    0.4509
   C16    C    1.0     -0.1754    0.4410    0.4544
   C17    C    1.0     -0.0342    0.4198    0.1328
   C18    C    1.0     -0.0399    0.4592    0.4978
   C19    C    1.0     -0.1773   -0.3482    0.2435
   C20    C    1.0      0.0100   -0.0283   -0.4346
   C21    C    1.0     -0.0093    0.1035   -0.0274
   C22    C    1.0     -0.0146    0.2871   -0.2746
   C23    C    1.0      0.0168   -0.0685    0.1998
   C24    C    1.0     -0.1085   -0.4964   -0.1580
    H1    H    1.0     -0.2768   -0.3990    0.2743
    H2    H    1.0     -0.2349   -0.2142    0.2499
    H3    H    1.0     -0.2216   -0.3531    0.1213
    H4    H    1.0     -0.1374    0.3705    0.1583
    H5    H    1.0     -0.0635   -0.3940    0.2717
    H6    H    1.0     -0.0201   -0.3518    0.1203
    H7    H    1.0      0.0196    0.3918    0.0621
    H8    H    1.0      0.0729    0.3718    0.1654
    H9    H    1.0     -0.1214    0.2450   -0.2432
   H10    H    1.0     -0.1299    0.1681   -0.0488
   H11    H    1.0     -0.0044   -0.2565   -0.4219
   H12    H    1.0      0.0213   -0.4934   -0.2852
   H13    H    1.0      0.0169    0.4506   -0.1393
   H14    H    1.0     -0.0436   -0.0001   -0.3640
   H15    H    1.0     -0.0405   -0.0595   -0.1630
   H16    H    1.0     -0.0397    0.1212    0.0438
   H17    H    1.0     -0.0453   -0.1159   -0.0171
   H18    H    1.0      0.0154    0.2692   -0.3458
   H19    H    1.0      0.0390   -0.2146    0.4267
   H20    H    1.0      0.1132    0.0209   -0.4604
   H21    H    1.0      0.1063    0.2228   -0.2534
   H22    H    1.0     -0.0972    0.0196   -0.4672
   H23    H    1.0      0.0977    0.1456   -0.0585
   H24    H    1.0     -0.1607   -0.3630   -0.1461
   H25    H    1.0      0.1801   -0.0618   -0.1815
   H26    H    1.0      0.1672   -0.1305   -0.0293
   H27    H    1.0      0.2101   -0.3945    0.4485
   H28    H    1.0      0.1974   -0.2555   -0.4230
   H29    H    1.0     -0.1912   -0.4790   -0.2729
   H30    H    1.0      0.1372   -0.2458   -0.1564
   H31    H    1.0     -0.2039    0.4532   -0.1207
   H32    H    1.0      0.2525   -0.2100    0.4239
   Li1    Li   1.0     -0.1750    0.1884    0.3246
   Li2    Li   1.0      0.4819    0.2023    0.3534
   Li3    Li   1.0      0.4874    0.1945   -0.1505
   Li4    Li   1.0      0.1498    0.2016    0.3733
    N1    N    1.0      0.0895   -0.2073   -0.4516
    N2    N    1.0     -0.1138   -0.4012    0.1499
    N3    N    1.0      0.0517   -0.0731   -0.0504
    N4    N    1.0     -0.0756    0.4639   -0.2519
    O1    O    1.0      0.2234   -0.4741   -0.2948
    O2    O    1.0      0.2333   -0.4275    0.0331
    O3    O    1.0      0.2497   -0.4910    0.1997
    O4    O    1.0      0.2926    0.3114    0.2946
    O5    O    1.0      0.2631    0.3771   -0.0646
    O6    O    1.0      0.3083   -0.1578    0.2166
    O7    O    1.0      0.3556    0.1313   -0.2262
    O8    O    1.0      0.3488   -0.1736    0.0095
    O9    O    1.0      0.3709    0.0519    0.4061
   O10    O    1.0      0.3720   -0.3368   -0.3804
   O11    O    1.0      0.4147   -0.0625   -0.3307
   O12    O    1.0      0.4263   -0.1394   -0.4965
   O13    O    1.0     -0.4687    0.3863   -0.2310
   O14    O    1.0      0.4447    0.0041   -0.0711
   O15    O    1.0     -0.4495   -0.4715    0.1941
   O16    O    1.0     -0.4377    0.4534    0.0279
   O17    O    1.0     -0.3960   -0.2724    0.0784
   O18    O    1.0     -0.3724   -0.4364   -0.3118
   O19    O    1.0     -0.3785    0.2595   -0.0765
   O20    O    1.0     -0.3317   -0.4535    0.4817
   O21    O    1.0     -0.2864    0.0119   -0.2370
   O22    O    1.0     -0.3200    0.0827    0.4052
   O23    O    1.0     -0.2736   -0.1185    0.4980
   O24    O    1.0     -0.2567   -0.1827   -0.3352
   O25    O    1.0     -0.3984    0.3420    0.2944
   O26    O    1.0     -0.1217    0.3279    0.3971
   O27    O    1.0      0.1153    0.3619    0.4757
   O28    O    1.0      0.0821   -0.1892    0.1422
   O29    O    1.0      0.0986    0.0611    0.3011
   O30    O    1.0     -0.2472   -0.1356   -0.0075
   O31    O    1.0     -0.1055   -0.4201   -0.4446
   O32    O    1.0     -0.1379    0.0296    0.2217
   Zr1    Zr   1.0     -0.3931   -0.2686   -0.4132
   Zr2    Zr   1.0      0.3697   -0.3414    0.1110

