data_DFT_phase_I
_publ_section_comment
;
Structure of phase I, fully relaxed by DFT calculation
;
_cell_length_a                  15.2191
_cell_length_b                  16.5446
_cell_length_c                  16.3003
_cell_angle_alpha               90.0000
_cell_angle_beta                91.8860
_cell_angle_gamma               90.0000

_symmetry_space_group_name_H-M     'I 2/a'
_symmetry_Int_Tables_number         15
_symmetry_cell_setting             monoclinic
loop_
_symmetry_equiv_pos_as_xyz
'+x,+y,+z'
'1/2+x,1/2+y,1/2+z'
'1/2-x,+y,-z'
'-x,1/2+y,1/2-z'
'-x,-y,-z'
'1/2-x,1/2-y,1/2-z'
'1/2+x,-y,+z'
'+x,1/2-y,1/2+z'

loop_
_atom_site_label
_atom_site_type_symbol
_atom_site_occupancy
_atom_site_fract_x
_atom_site_fract_y
_atom_site_fract_z
    C1    C    1.0      0.1334   -0.6726   -0.8613  
    C2    C    1.0      0.1229   -0.1819   -0.1516  
    C3    C    1.0     -0.8869   -0.0488   -0.0840  
    C4    C    1.0      0.1408   -0.5363   -0.9217  
    C5    C    1.0     -0.2054   -0.8849   -0.3761  
    C6    C    1.0     -0.1671   -0.1222   -0.1144  
    C7    C    1.0     -0.1402   -0.8721   -0.1163  
    C8    C    1.0     -0.1068   -0.8853   -0.3967  
    C9    C    1.0     -0.0405   -0.8856   -0.1242  
   C10    C    1.0     -0.0032   -0.1256   -0.3357  
   C11    C    1.0     -0.2547   -0.1147   -0.1649  
   C12    C    1.0     -0.0958   -0.1359   -0.3774  
    H1    H    1.0     -0.8363   -0.0661   -0.0374  
    H2    H    1.0      0.0937   -0.5542   -0.9711  
    H3    H    1.0      0.2086   -0.5497   -0.9393  
    H4    H    1.0      0.1347   -0.4716   -0.9070  
    H5    H    1.0     -0.8238   -0.2036   -0.1096  
    H6    H    1.0      0.0865   -0.0746   -0.2083  
    H7    H    1.0     -0.8039   -0.0804   -0.1764  
    H8    H    1.0      0.0855   -0.6923   -0.9094  
    H9    H    1.0      0.1219   -0.7038   -0.8028  
   H10    H    1.0      0.2008   -0.6843   -0.8810  
   H11    H    1.0      0.0581   -0.1956   -0.1267  
   H12    H    1.0      0.1285   -0.2091   -0.2129  
   H13    H    1.0     -0.3350   -0.0674   -0.2982  
   H14    H    1.0      0.0563   -0.5744   -0.8332  
   H15    H    1.0      0.0473   -0.0663   -0.0638  
   H16    H    1.0     -0.8857   -0.9833   -0.0961  
   Li1    Li   1.0     -0.1313   -0.7059   -0.0539  
   Li2    Li   1.0      0.3775   -0.8027   -0.9453  
    N1    N    1.0      0.1309   -0.0930   -0.1606  
    N2    N    1.0      0.1223   -0.5846   -0.8478  
    O1    O    1.0      0.0110   -0.8517   -0.0753  
    O2    O    1.0      0.2427   -0.3419   -0.9160  
    O3    O    1.0     -0.3198   -0.1559   -0.1497  
    O4    O    1.0     -0.0015   -0.0703   -0.2787  
    O5    O    1.0     -0.2511   -0.0621   -0.2239  
    O6    O    1.0     -0.1027   -0.0842   -0.1471  
    O7    O    1.0     -0.0597   -0.9287   -0.3454  
    O8    O    1.0     -0.1524   -0.0843   -0.3515  
    O9    O    1.0     -0.2241   -0.9318   -0.3154  
   O10    O    1.0     -0.1870   -0.9246   -0.1578  
   O11    O    1.0     -0.0213   -0.9341   -0.1835  
   O12    O    1.0     -0.1110   -0.1890   -0.4293  
   O13    O    1.0      0.0604   -0.1669   -0.3552  
   O14    O    1.0     -0.1639   -0.1627   -0.0508  
   O15    O    1.0     -0.0783   -0.8472   -0.4556  
   O16    O    1.0     -0.1696   -0.8172   -0.0737  
   Zr1    Zr   1.0     -0.1236   -0.0020   -0.2500  

